/*--------------------------------*- C++ -*----------------------------------*\
  =========                 |
  \\      /  F ield         | OpenFOAM: The Open Source CFD Toolbox
   \\    /   O peration     | Website:  https://openfoam.org
    \\  /    A nd           | Version:  7
     \\/     M anipulation  |
\*---------------------------------------------------------------------------*/
FoamFile
{
    version     2.0;
    format      ascii;
    class       volScalarField;
    object      nuTilda;
}
// * * * * * * * * * * * * * * * * * * * * * * * * * * * * * * * * * * * * * //

dimensions      [0 2 -1 0 0 0 0];

internalField   uniform 0;

boundaryField
{
    backSide
    {
        type            zeroGradient;
    }
    bottomLeftSide
    {
        type            zeroGradient;
    }
    bottomRightSide
    {
        type            zeroGradient;
    }
    frontSide
    {
        type            zeroGradient;
    }
    hole
    {
        type            zeroGradient;
    }
    inlet
    {
        type            fixedValue;
        value           uniform 0;
    }
    leftSide
    {
        type            zeroGradient;
    }
    outlet
    {
        type            zeroGradient;
    }
    rightSide
    {
        type            zeroGradient;
    }
    topSide
    {
        type            zeroGradient;
    }
}

// ************************************************************************* //
